/*--------------------------------*- C++ -*----------------------------------*\
| =========                 |                                                 |
| \\      /  F ield         | OpenFOAM: The Open Source CFD Toolbox           |
|  \\    /   O peration     | Version:  2.3.1                                 |
|   \\  /    A nd           | Web:      www.OpenFOAM.org                      |
|    \\/     M anipulation  |                                                 |
\*---------------------------------------------------------------------------*/
FoamFile
{
    version     2.0;
    format      ascii;
    class       volScalarField;
    location    "0";
    object      T;
}
// * * * * * * * * * * * * * * * * * * * * * * * * * * * * * * * * * * * * * //
#include "inputs" 
dimensions      [0 0 0 1 0 0 0];

internalField   uniform $Tini;

boundaryField
{
    steelwalls
    {
        type            calculated;
        value           uniform $Tini;
    }
    up
    {
        type            calculated;
        value           uniform $Tini;
    }
    ref
    {
        type            calculated;
        value           uniform $Tini;
    }
    "wedge.*"
    {
        type            wedge;
    }
}

// ************************************************************************* //