/*--------------------------------*- C++ -*----------------------------------*\
| =========                 |                                                 |
| \\      /  F ield         | OpenFOAM: The Open Source CFD Toolbox           |
|  \\    /   O peration     | Version:  v1706                                 |
|   \\  /    A nd           | Web:      www.OpenFOAM.com                      |
|    \\/     M anipulation  |                                                 |
\*---------------------------------------------------------------------------*/
FoamFile
{
    version     2.0;
    format      ascii;
    class       volScalarField;
    location    "0/fluid";
    object      p;
}
// * * * * * * * * * * * * * * * * * * * * * * * * * * * * * * * * * * * * * //

dimensions      [ 1 -1 -2 0 0 0 0 ];

internalField   uniform 101325;

boundaryField
{
    wedge0
    {
        type            wedge;
        physicalType    wedge;
    }
    wedge1
    {
        type            wedge;
        physicalType    wedge;
    }
    fluid_to_steel
    {
        type            calculated;
        value           uniform 0;
    }
    fluid_to_food
    {
        type            calculated;
        value           uniform 0;
    }
    fluid_to_cap
    {
        type            calculated;
        value           uniform 0;
    }
}


// ************************************************************************* //
