/*--------------------------------*- C++ -*----------------------------------*\
| =========                 |                                                 |
| \\      /  F ield         | OpenFOAM: The Open Source CFD Toolbox           |
|  \\    /   O peration     | Version:  5                                     |
|   \\  /    A nd           | Web:      www.OpenFOAM.org                      |
|    \\/     M anipulation  |                                                 |
\*---------------------------------------------------------------------------*/
FoamFile
{
    version     2.0;
    format      ascii;
    class       dictionary;
    object      changeDictionaryDict;
}
// * * * * * * * * * * * * * * * * * * * * * * * * * * * * * * * * * * * * * //

#include "$FOAM_CASE/0/inputs"

boundary
{
    "wedge.*"
    {
        type            wedge;
    	  physicalType	  wedge;
    }
}
T
{
    internalField   uniform $Tini;

    boundaryField
    {
        ".*"
        {
            type            zeroGradient;
            value           uniform $Tini;
        }
        "fluid_to_.*"
        {
            type            compressible::turbulentTemperatureCoupledBaffleMixed;
            Tnbr            T;
            kappaMethod     solidThermo;
            value           uniform $Tini;
        }
       "wedge.*"
            {
                type            wedge;
          	    physicalType	  wedge;
            }
      }
}

p
{
    internalField   uniform $pini;
  
    boundaryField
    {
        "wedge.*"
        {
            type            wedge;
    	      physicalType	  wedge;
        }

    }
}

// ************************************************************************* //
