/*--------------------------------*- C++ -*----------------------------------*\
| =========                 |                                                 |
| \\      /  F ield         | OpenFOAM: The Open Source CFD Toolbox           |
|  \\    /   O peration     | Version:  v1706                                 |
|   \\  /    A nd           | Web:      www.OpenFOAM.com                      |
|    \\/     M anipulation  |                                                 |
\*---------------------------------------------------------------------------*/
FoamFile
{
    version     2.0;
    format      ascii;
    class       volScalarField;
    location    "0/food";
    object      T;
}
// * * * * * * * * * * * * * * * * * * * * * * * * * * * * * * * * * * * * * //

dimensions      [ 0 0 0 1 0 0 0 ];

internalField   uniform 200;

boundaryField
{
    wedge0
    {
        type            wedge;
        physicalType    wedge;
    }
    wedge1
    {
        type            wedge;
        physicalType    wedge;
    }
    food_to_cap
    {
        type            compressible::turbulentTemperatureCoupledBaffleMixed;
        value           uniform 200;
        Tnbr            T;
        kappaMethod     solidThermo;
    }
    food_to_fluid
    {
        type            compressible::turbulentTemperatureCoupledBaffleMixed;
        value           uniform 200;
        Tnbr            T;
        kappaMethod     solidThermo;
    }
    food_to_steel
    {
        type            compressible::turbulentTemperatureCoupledBaffleMixed;
        value           uniform 200;
        Tnbr            T;
        kappaMethod     solidThermo;
    }
}


// ************************************************************************* //
